%chk=D:\C drive data\Desktop\Protein Drug\ASN Aft bonded.chk
# opt hf/6-31g(d) geom=connectivity pop=full

ASN AFT bonded

0 1
 C                  1.71002277    3.81826109    2.25477821
 C                  2.60981896    4.88280693    2.20833206
 C                  2.12369812    6.16161093    1.94358724
 C                 -0.03449049    5.29469457    1.79119834
 H                  4.34763577    3.69299222    2.62625714
 C                  3.97845099    4.67650243    2.42300705
 C                  3.00399063    7.25027656    1.89065546
 H                 -1.07912467    5.45740574    1.62637058
 C                  4.37525381    7.05040756    2.10428664
 C                  4.86287862    5.76269083    2.37061922
 H                  2.63060091    8.23221649    1.68759141
 N                  0.81307253    6.33716265    1.74144624
 N                  0.40922967    4.05095364    2.04472035
 N                  2.18562670    2.45516454    2.53151344
 H                  2.16959439    2.29034666    3.51770711
 C                  1.31055633    1.48477461    1.85816900
 C                  0.18643633    0.97604455    2.52253590
 C                  1.60047789    1.06842866    0.55183059
 C                 -0.64777939    0.05091801    1.88058309
 H                 -0.03490433    1.29397561    3.51994522
 C                  0.76628533    0.14326668   -0.09010140
 H                  2.45876802    1.45690914    0.04455011
 C                 -0.35784570   -0.36547957    0.57427525
 H                  0.98764885   -0.17466019   -1.08750284
 F                 -1.16146599   -1.25670140   -0.04411520
 Cl                -2.05960955   -0.58799193    2.71490442
 O                  5.27634352    8.15948415    2.05050000
 N                  6.30038324    5.55229294    2.59452292
 H                  6.50378052    5.64927951    3.56880033
 C                  5.40046862    8.73668819    3.35293464
 C                  6.28875138    9.99938770    3.19218058
 C                  4.12985271    9.33741616    3.97573096
 H                  5.74494412    7.98265555    4.02946770
 H                  6.13124244   10.40926424    2.21641119
 H                  7.33069870    9.78962249    3.31561116
 C                  4.27666291   10.80232641    3.64916089
 H                  3.22890550    8.84606566    3.67276295
 H                  4.20422078    9.28388874    5.04180048
 H                  3.57462167   11.41769727    4.17204133
 H                  4.17058737   11.00211652    2.60336920
 C                  7.06573144    6.54938147    1.83235260
 C                  8.47252440    6.20499636    1.30905209
 H                  8.89328188    5.24000381    1.50061989
 C                  9.17748472    7.12430937    0.60583375
 H                  8.75656277    8.08923912    0.41435829
 C                 10.58426493    6.78040537    0.08217697
 H                 10.50635990    6.35424511   -0.89620770
 H                 11.04827936    6.07707268    0.74163624
 N                 11.39660840    8.00397156    0.02039576
 C                 10.75884523    8.97017769   -0.88545415
 H                 11.35002767    9.86089713   -0.93045094
 H                 10.68088084    8.54404187   -1.86383111
 H                  9.78138713    9.20886958   -0.52144596
 C                 12.73941552    7.67594600   -0.47974182
 H                 12.66132912    7.24988318   -1.45813964
 H                 13.33069753    8.56660346   -0.52471780
 H                 13.20363201    6.97258364    0.17956657
 O                  6.57126302    7.68448270    1.60737324
 N                  5.70103022   10.97708604    4.09982450
 C                  5.89351350   10.66418802    5.52318692
 C                  7.06769062   11.29143164    6.29741467
 H                  6.75568380   12.22012445    6.72765144
 H                  7.88418065   11.46493619    5.62798341
 C                  7.51575717   10.33242062    7.41593181
 C                  7.87705507   10.86236831    8.81601568
 O                  5.09886599    9.88387267    6.10899171
 O                  9.06571169   11.17884557    9.08154043
 O                  6.86180107   10.99484810    9.81434148
 H                  7.08663479   11.71701524   10.40554941
 N                  7.89832635    8.95528912    7.07226400
 H                  8.89514001    8.87548521    7.07584150
 H                  7.51099144    8.32415591    7.74430973
 H                  8.48073854   10.69954419    7.13501996

 1 2 1.5 13 1.5 14 1.0
 2 3 1.5 6 1.5
 3 7 1.5 12 1.5
 4 8 1.0 12 1.5 13 1.5
 5 6 1.0
 6 10 1.5
 7 9 1.5 11 1.0
 8
 9 10 1.5 27 1.0
 10 28 1.0
 11
 12
 13
 14 15 1.0 16 1.0
 15
 16 17 1.5 18 1.5
 17 19 1.5 20 1.0
 18 21 1.5 22 1.0
 19 23 1.5 26 1.0
 20
 21 23 1.5 24 1.0
 22
 23 25 1.0
 24
 25
 26
 27 30 1.0
 28 29 1.0 41 1.0
 29
 30 31 1.0 32 1.0 33 1.0
 31 34 1.0 35 1.0 59 1.0
 32 36 1.0 37 1.0 38 1.0
 33
 34
 35
 36 39 1.0 40 1.0 59 1.0
 37
 38
 39
 40
 41 42 1.0 58 2.0
 42 43 1.0 44 2.0
 43
 44 45 1.0 46 1.0
 45
 46 47 1.0 48 1.0 49 1.0
 47
 48
 49 50 1.0 54 1.0
 50 51 1.0 52 1.0 53 1.0
 51
 52
 53
 54 55 1.0 56 1.0 57 1.0
 55
 56
 57
 58
 59 60 1.0
 60 61 1.0 66 2.0
 61 62 1.0 63 1.0 64 1.0
 62
 63
 64 65 1.0 70 1.0 73 1.0
 65 67 2.0 68 1.0
 66
 67
 68 69 1.0
 69
 70 71 1.0 72 1.0
 71
 72
 73

